LTspice 26.0.1 for Windows
Circuit: C:\Users\zslakato\OneDrive - Emerson\Asztal\WATCH2026_theremin\colpitts_spice\colpitts.net
Start Time: Wed Mar 25 17:01:10 2026
C:\Users\zslakato\OneDrive - Emerson\Asztal\WATCH2026_theremin\colpitts_spice\colpitts.net(15): This pin name equals one of the port names of the sub-circuit, but at a different position. This is not a problem, but note that as a result none of the pin names may be used by any .meas expressions.
X§U1 OUT N004 N005 TMBT3904 ;§pnba 3)1)2
                                   ^
solver = Normal
Maximum thread count: 22
tnom = 27
temp = 27
method = trap
WARNING: Node n007 is floating.

.OP point found by inspection.
.OP point found by inspection.
Total elapsed time: 0.319 seconds.

Files loaded:
C:\Users\zslakato\OneDrive - Emerson\Asztal\WATCH2026_theremin\colpitts_spice\colpitts.net
C:\Users\zslakato\AppData\Local\LTspice\lib\sub\Contrib\Toshiba\BJT\TMBT3904_enc.lib

